feeders/ACEC Disembedded/main.glm
clock {
timezone PST+8PDT;
stoptime '2000-01-02 00:00:00';
starttime '2000-01-01 00:00:00';
};

#set minimum_timestep=60;
#set profiler=1;
#set relax_naming_rules=1;
module generators;
module tape;
module climate;
module residential {
implicit_enduses NONE;
};

module powerflow {
solver_method FBS;
NR_iteration_limit 50;
};

object climate {
name Climate;
interpolate QUADRATIC;
tmyfile climate.tmy2;
};

object node {
phases ABCN;
nominal_voltage 7200.0;
name FRIENDSHIP;
bustype SWING;
};

object regulator {
phases ACB;
from FRIENDSHIP;
name REG27;
to node958175REG27;
configuration REG27regulator_configuration12;
};

object regulator_configuration {
Control MANUAL;
raise_taps 16;
PT_phase ABC;
name REG27regulator_configuration12;
band_center 2401;
tap_pos_A 1;
tap_pos_B 1;
tap_pos_C 1;
time_delay 30.0;
connect_type 1;
regulation 0.10;
CT_phase ABC;
band_width 50;
Type A;
lower_taps 16;
};

object underground_line {
phases ACB;
from node958175REG27;
name 958175;
to nodeRFRN1-R0001x1958175;
length 24;
configuration 958175line_configuration14;
};

object line_configuration {
name 958175line_configuration14;
spacing 958175line_configuration14line_spacing15;
conductor_N 958175line_configuration14underground_line_conductor18;
conductor_A 958175line_configuration14underground_line_conductor16;
conductor_C 958175line_configuration14underground_line_conductor19;
conductor_B 958175line_configuration14underground_line_conductor17;
};

object line_spacing {
distance_AN 0.000000;
name 958175line_configuration14line_spacing15;
distance_CN 0.000000;
distance_BC 0.500000;
distance_AB 0.500000;
distance_BN 0.000000;
distance_AC 1.000000;
};

object underground_line_conductor {
conductor_gmr 0.008830;
conductor_resistance 1.540000;
shield_resistance 0.000000;
neutral_gmr 0.002080;
outer_diameter 0.980000;
neutral_strands 6.000000;
neutral_resistance 14.872000;
neutral_diameter 0.064000;
conductor_diameter 0.292000;
shield_gmr 0.000000;
name 958175line_configuration14underground_line_conductor16;
};

object underground_line_conductor {
conductor_gmr 0.008830;
conductor_resistance 1.540000;
shield_resistance 0.000000;
neutral_gmr 0.002080;
outer_diameter 0.980000;
neutral_strands 6.000000;
neutral_resistance 14.872000;
neutral_diameter 0.064000;
conductor_diameter 0.292000;
shield_gmr 0.000000;
name 958175line_configuration14underground_line_conductor17;
};

object underground_line_conductor {
conductor_gmr 0.008830;
conductor_resistance 1.540000;
shield_resistance 0.000000;
neutral_gmr 0.002080;
outer_diameter 0.980000;
neutral_strands 6.000000;
neutral_resistance 14.872000;
neutral_diameter 0.064000;
conductor_diameter 0.292000;
shield_gmr 0.000000;
name 958175line_configuration14underground_line_conductor18;
};

object underground_line_conductor {
conductor_gmr 0.008830;
conductor_resistance 1.540000;
shield_resistance 0.000000;
neutral_gmr 0.002080;
outer_diameter 0.980000;
neutral_strands 6.000000;
neutral_resistance 14.872000;
neutral_diameter 0.064000;
conductor_diameter 0.292000;
shield_gmr 0.000000;
name 958175line_configuration14underground_line_conductor19;
};

object fuse {
phases ACB;
from nodeRFRN1-R0001x1958175;
name RFRN1-R0001x1;
current_limit 9999.0 A;
to node958178RFRN1-R0001x1;
};

object underground_line {
phases ACB;
from node958178RFRN1-R0001x1;
name 958178;
to node958179958178;
length 780;
configuration 958178line_configuration22;
};

object line_configuration {
name 958178line_configuration22;
spacing 958178line_configuration22line_spacing23;
conductor_N 958178line_configuration22underground_line_conductor26;
conductor_A 958178line_configuration22underground_line_conductor24;
conductor_C 958178line_configuration22underground_line_conductor27;
conductor_B 958178line_configuration22underground_line_conductor25;
};

object line_spacing {
distance_AN 0.000000;
name 958178line_configuration22line_spacing23;
distance_CN 0.000000;
distance_BC 0.500000;
distance_AB 0.500000;
distance_BN 0.000000;
distance_AC 1.000000;
};

object underground_line_conductor {
conductor_gmr 0.008830;
conductor_resistance 1.540000;
shield_resistance 0.000000;
neutral_gmr 0.002080;
outer_diameter 0.980000;
neutral_strands 6.000000;
neutral_resistance 14.872000;
neutral_diameter 0.064000;
conductor_diameter 0.292000;
shield_gmr 0.000000;
name 958178line_configuration22underground_line_conductor24;
};

object underground_line_conductor {
conductor_gmr 0.008830;
conductor_resistance 1.540000;
shield_resistance 0.000000;
neutral_gmr 0.002080;
outer_diameter 0.980000;
neutral_strands 6.000000;
neutral_resistance 14.872000;
neutral_diameter 0.064000;
conductor_diameter 0.292000;
shield_gmr 0.000000;
name 958178line_configuration22underground_line_conductor25;
};

object underground_line_conductor {
conductor_gmr 0.008830;
conductor_resistance 1.540000;
shield_resistance 0.000000;
neutral_gmr 0.002080;
outer_diameter 0.980000;
neutral_strands 6.000000;
neutral_resistance 14.872000;
neutral_diameter 0.064000;
conductor_diameter 0.292000;
shield_gmr 0.000000;
name 958178line_configuration22underground_line_conductor26;
};

object underground_line_conductor {
conductor_gmr 0.008830;
conductor_resistance 1.540000;
shield_resistance 0.000000;
neutral_gmr 0.002080;
outer_diameter 0.980000;
neutral_strands 6.000000;
neutral_resistance 14.872000;
neutral_diameter 0.064000;
conductor_diameter 0.292000;
shield_gmr 0.000000;
name 958178line_configuration22underground_line_conductor27;
};

object underground_line {
phases ACB;
from node958179958178;
name 958179;
to node978195958179;
length 860;
configuration 958179line_configuration29;
};

object line_configuration {
name 958179line_configuration29;
spacing 958179line_configuration29line_spacing30;
conductor_N 958179line_configuration29underground_line_conductor33;
conductor_C 958179line_configuration29underground_line_conductor34;
conductor_B 958179line_configuration29underground_line_conductor32;
conductor_A 958179line_configuration29underground_line_conductor31;
};

object line_spacing {
distance_AN 0.000000;
name 958179line_configuration29line_spacing30;
distance_CN 0.000000;
distance_BC 0.500000;
distance_AB 0.500000;
distance_BN 0.000000;
distance_AC 1.000000;
};

object underground_line_conductor {
conductor_gmr 0.008830;
conductor_resistance 1.540000;
shield_resistance 0.000000;
neutral_gmr 0.002080;
outer_diameter 0.980000;
neutral_strands 6.000000;
neutral_resistance 14.872000;
neutral_diameter 0.064000;
conductor_diameter 0.292000;
shield_gmr 0.000000;
name 958179line_configuration29underground_line_conductor31;
};

object underground_line_conductor {
conductor_gmr 0.008830;
conductor_resistance 1.540000;
shield_resistance 0.000000;
neutral_gmr 0.002080;
outer_diameter 0.980000;
neutral_strands 6.000000;
neutral_resistance 14.872000;
neutral_diameter 0.064000;
conductor_diameter 0.292000;
shield_gmr 0.000000;
name 958179line_configuration29underground_line_conductor32;
};

object underground_line_conductor {
conductor_gmr 0.008830;
conductor_resistance 1.540000;
shield_resistance 0.000000;
neutral_gmr 0.002080;
outer_diameter 0.980000;
neutral_strands 6.000000;
neutral_resistance 14.872000;
neutral_diameter 0.064000;
conductor_diameter 0.292000;
shield_gmr 0.000000;
name 958179line_configuration29underground_line_conductor33;
};

object underground_line_conductor {
conductor_gmr 0.008830;
conductor_resistance 1.540000;
shield_resistance 0.000000;
neutral_gmr 0.002080;
outer_diameter 0.980000;
neutral_strands 6.000000;
neutral_resistance 14.872000;
neutral_diameter 0.064000;
conductor_diameter 0.292000;
shield_gmr 0.000000;
name 958179line_configuration29underground_line_conductor34;
};

object underground_line {
phases ACB;
from node978195958179;
name 978195;
to node978172978195;
length 1970;
configuration 978195line_configuration36;
};

object line_configuration {
name 978195line_configuration36;
spacing 978195line_configuration36line_spacing37;
conductor_N 978195line_configuration36underground_line_conductor40;
conductor_B 978195line_configuration36underground_line_conductor39;
conductor_A 978195line_configuration36underground_line_conductor38;
conductor_C 978195line_configuration36underground_line_conductor41;
};

object line_spacing {
distance_AN 0.000000;
name 978195line_configuration36line_spacing37;
distance_CN 0.000000;
distance_BC 0.500000;
distance_AB 0.500000;
distance_BN 0.000000;
distance_AC 1.000000;
};

object underground_line_conductor {
conductor_gmr 0.008830;
conductor_resistance 1.540000;
shield_resistance 0.000000;
neutral_gmr 0.002080;
outer_diameter 0.980000;
neutral_strands 6.000000;
neutral_resistance 14.872000;
neutral_diameter 0.064000;
conductor_diameter 0.292000;
shield_gmr 0.000000;
name 978195line_configuration36underground_line_conductor38;
};

object underground_line_conductor {
conductor_gmr 0.008830;
conductor_resistance 1.540000;
shield_resistance 0.000000;
neutral_gmr 0.002080;
outer_diameter 0.980000;
neutral_strands 6.000000;
neutral_resistance 14.872000;
neutral_diameter 0.064000;
conductor_diameter 0.292000;
shield_gmr 0.000000;
name 978195line_configuration36underground_line_conductor39;
};

object underground_line_conductor {
conductor_gmr 0.008830;
conductor_resistance 1.540000;
shield_resistance 0.000000;
neutral_gmr 0.002080;
outer_diameter 0.980000;
neutral_strands 6.000000;
neutral_resistance 14.872000;
neutral_diameter 0.064000;
conductor_diameter 0.292000;
shield_gmr 0.000000;
name 978195line_configuration36underground_line_conductor40;
};

object underground_line_conductor {
conductor_gmr 0.008830;
conductor_resistance 1.540000;
shield_resistance 0.000000;
neutral_gmr 0.002080;
outer_diameter 0.980000;
neutral_strands 6.000000;
neutral_resistance 14.872000;
neutral_diameter 0.064000;
conductor_diameter 0.292000;
shield_gmr 0.000000;
name 978195line_configuration36underground_line_conductor41;
};

object underground_line {
phases ACB;
from node978172978195;
name 978172;
to node978174978172;
length 780;
configuration 978172line_configuration43;
};

object line_configuration {
name 978172line_configuration43;
spacing 978172line_configuration43line_spacing44;
conductor_N 978172line_configuration43underground_line_conductor47;
conductor_A 978172line_configuration43underground_line_conductor45;
conductor_C 978172line_configuration43underground_line_conductor48;
conductor_B 978172line_configuration43underground_line_conductor46;
};

object line_spacing {
distance_AN 0.000000;
name 978172line_configuration43line_spacing44;
distance_CN 0.000000;
distance_BC 0.500000;
distance_AB 0.500000;
distance_BN 0.000000;
distance_AC 1.000000;
};

object underground_line_conductor {
conductor_gmr 0.008830;
conductor_resistance 1.540000;
shield_resistance 0.000000;
neutral_gmr 0.002080;
outer_diameter 0.980000;
neutral_strands 6.000000;
neutral_resistance 14.872000;
neutral_diameter 0.064000;
conductor_diameter 0.292000;
shield_gmr 0.000000;
name 978172line_configuration43underground_line_conductor45;
};

object underground_line_conductor {
conductor_gmr 0.008830;
conductor_resistance 1.540000;
shield_resistance 0.000000;
neutral_gmr 0.002080;
outer_diameter 0.980000;
neutral_strands 6.000000;
neutral_resistance 14.872000;
neutral_diameter 0.064000;
conductor_diameter 0.292000;
shield_gmr 0.000000;
name 978172line_configuration43underground_line_conductor46;
};

object underground_line_conductor {
conductor_gmr 0.008830;
conductor_resistance 1.540000;
shield_resistance 0.000000;
neutral_gmr 0.002080;
outer_diameter 0.980000;
neutral_strands 6.000000;
neutral_resistance 14.872000;
neutral_diameter 0.064000;
conductor_diameter 0.292000;
shield_gmr 0.000000;
name 978172line_configuration43underground_line_conductor47;
};

object underground_line_conductor {
conductor_gmr 0.008830;
conductor_resistance 1.540000;
shield_resistance 0.000000;
neutral_gmr 0.002080;
outer_diameter 0.980000;
neutral_strands 6.000000;
neutral_resistance 14.872000;
neutral_diameter 0.064000;
conductor_diameter 0.292000;
shield_gmr 0.000000;
name 978172line_configuration43underground_line_conductor48;
};

object underground_line {
phases B;
from node978174978172;
name 978174;
length 30;
to nodeF28653x1978174;
configuration 978174line_configuration50;
};

object line_configuration {
name 978174line_configuration50;
spacing 978174line_configuration50line_spacing51;
conductor_N 978174line_configuration50underground_line_conductor54;
conductor_A 978174line_configuration50underground_line_conductor52;
conductor_C 978174line_configuration50underground_line_conductor55;
conductor_B 978174line_configuration50underground_line_conductor53;
};

object line_spacing {
distance_AN 0.000000;
name 978174line_configuration50line_spacing51;
distance_CN 0.000000;
distance_BC 0.500000;
distance_AB 0.500000;
distance_BN 0.000000;
distance_AC 1.000000;
};

object underground_line_conductor {
conductor_gmr 0.008830;
conductor_resistance 1.540000;
shield_resistance 0.000000;
neutral_gmr 0.002080;
outer_diameter 0.980000;
neutral_strands 6.000000;
neutral_resistance 14.872000;
neutral_diameter 0.064000;
conductor_diameter 0.292000;
shield_gmr 0.000000;
name 978174line_configuration50underground_line_conductor52;
};

object underground_line_conductor {
conductor_gmr 0.008830;
conductor_resistance 1.540000;
shield_resistance 0.000000;
neutral_gmr 0.002080;
outer_diameter 0.980000;
neutral_strands 6.000000;
neutral_resistance 14.872000;
neutral_diameter 0.064000;
conductor_diameter 0.292000;
shield_gmr 0.000000;
name 978174line_configuration50underground_line_conductor53;
};

object underground_line_conductor {
conductor_gmr 0.008830;
conductor_resistance 1.540000;
shield_resistance 0.000000;
neutral_gmr 0.002080;
outer_diameter 0.980000;
neutral_strands 6.000000;
neutral_resistance 14.872000;
neutral_diameter 0.064000;
conductor_diameter 0.292000;
shield_gmr 0.000000;
name 978174line_configuration50underground_line_conductor54;
};

object underground_line_conductor {
conductor_gmr 0.008830;
conductor_resistance 1.540000;
shield_resistance 0.000000;
neutral_gmr 0.002080;
outer_diameter 0.980000;
neutral_strands 6.000000;
neutral_resistance 14.872000;
neutral_diameter 0.064000;
conductor_diameter 0.292000;
shield_gmr 0.000000;
name 978174line_configuration50underground_line_conductor55;
};

object fuse {
phases B;
from nodeF28653x1978174;
name F28653x1;
current_limit 9999.0 A;
to node978192F28653x1;
};

object underground_line {
phases B;
from node978192F28653x1;
name 978192;
to node949317978192;
length 40;
configuration 978192line_configuration58;
};

object line_configuration {
name 978192line_configuration58;
conductor_A 978192line_configuration58underground_line_conductor60;
spacing 978192line_configuration58line_spacing59;
conductor_N 978192line_configuration58underground_line_conductor62;
conductor_B 978192line_configuration58underground_line_conductor61;
conductor_C 978192line_configuration58underground_line_conductor63;
};

object line_spacing {
distance_AN 0.000000;
name 978192line_configuration58line_spacing59;
distance_CN 0.000000;
distance_BC 0.500000;
distance_AB 0.500000;
distance_BN 0.000000;
distance_AC 1.000000;
};

object underground_line_conductor {
conductor_gmr 0.008830;
conductor_resistance 1.540000;
shield_resistance 0.000000;
neutral_gmr 0.002080;
outer_diameter 0.980000;
neutral_strands 6.000000;
neutral_resistance 14.872000;
neutral_diameter 0.064000;
conductor_diameter 0.292000;
shield_gmr 0.000000;
name 978192line_configuration58underground_line_conductor60;
};

object underground_line_conductor {
conductor_gmr 0.008830;
conductor_resistance 1.540000;
shield_resistance 0.000000;
neutral_gmr 0.002080;
outer_diameter 0.980000;
neutral_strands 6.000000;
neutral_resistance 14.872000;
neutral_diameter 0.064000;
conductor_diameter 0.292000;
shield_gmr 0.000000;
name 978192line_configuration58underground_line_conductor61;
};

object underground_line_conductor {
conductor_gmr 0.008830;
conductor_resistance 1.540000;
shield_resistance 0.000000;
neutral_gmr 0.002080;
outer_diameter 0.980000;
neutral_strands 6.000000;
neutral_resistance 14.872000;
neutral_diameter 0.064000;
conductor_diameter 0.292000;
shield_gmr 0.000000;
name 978192line_configuration58underground_line_conductor62;
};

object underground_line_conductor {
conductor_gmr 0.008830;
conductor_resistance 1.540000;
shield_resistance 0.000000;
neutral_gmr 0.002080;
outer_diameter 0.980000;
neutral_strands 6.000000;
neutral_resistance 14.872000;
neutral_diameter 0.064000;
conductor_diameter 0.292000;
shield_gmr 0.000000;
name 978192line_configuration58underground_line_conductor63;
};

object underground_line {
phases B;
from node949317978192;
name 949317;
to node949318949317;
length 469;
configuration 949317line_configuration65;
};

object line_configuration {
name 949317line_configuration65;
spacing 949317line_configuration65line_spacing66;
conductor_N 949317line_configuration65underground_line_conductor69;
conductor_B 949317line_configuration65underground_line_conductor68;
conductor_A 949317line_configuration65underground_line_conductor67;
conductor_C 949317line_configuration65underground_line_conductor70;
};

object line_spacing {
distance_AN 0.000000;
name 949317line_configuration65line_spacing66;
distance_CN 0.000000;
distance_BC 0.500000;
distance_AB 0.500000;
distance_BN 0.000000;
distance_AC 1.000000;
};

object underground_line_conductor {
conductor_gmr 0.008830;
conductor_resistance 1.540000;
shield_resistance 0.000000;
neutral_gmr 0.002080;
outer_diameter 0.980000;
neutral_strands 6.000000;
neutral_resistance 14.872000;
neutral_diameter 0.064000;
conductor_diameter 0.292000;
shield_gmr 0.000000;
name 949317line_configuration65underground_line_conductor67;
};

object underground_line_conductor {
conductor_gmr 0.008830;
conductor_resistance 1.540000;
shield_resistance 0.000000;
neutral_gmr 0.002080;
outer_diameter 0.980000;
neutral_strands 6.000000;
neutral_resistance 14.872000;
neutral_diameter 0.064000;
conductor_diameter 0.292000;
shield_gmr 0.000000;
name 949317line_configuration65underground_line_conductor68;
};

object underground_line_conductor {
conductor_gmr 0.008830;
conductor_resistance 1.540000;
shield_resistance 0.000000;
neutral_gmr 0.002080;
outer_diameter 0.980000;
neutral_strands 6.000000;
neutral_resistance 14.872000;
neutral_diameter 0.064000;
conductor_diameter 0.292000;
shield_gmr 0.000000;
name 949317line_configuration65underground_line_conductor69;
};

object underground_line_conductor {
conductor_gmr 0.008830;
conductor_resistance 1.540000;
shield_resistance 0.000000;
neutral_gmr 0.002080;
outer_diameter 0.980000;
neutral_strands 6.000000;
neutral_resistance 14.872000;
neutral_diameter 0.064000;
conductor_diameter 0.292000;
shield_gmr 0.000000;
name 949317line_configuration65underground_line_conductor70;
};

object underground_line {
phases B;
from node949318949317;
name 949318;
to nodeT14104949318;
length 519;
configuration 949318line_configuration72;
};

object line_configuration {
name 949318line_configuration72;
conductor_N 949318line_configuration72underground_line_conductor76;
spacing 949318line_configuration72line_spacing73;
conductor_A 949318line_configuration72underground_line_conductor74;
conductor_C 949318line_configuration72underground_line_conductor77;
conductor_B 949318line_configuration72underground_line_conductor75;
};

object line_spacing {
distance_AN 0.000000;
name 949318line_configuration72line_spacing73;
distance_CN 0.000000;
distance_BC 0.500000;
distance_AB 0.500000;
distance_BN 0.000000;
distance_AC 1.000000;
};

object underground_line_conductor {
conductor_gmr 0.008830;
conductor_resistance 1.540000;
shield_resistance 0.000000;
neutral_gmr 0.002080;
outer_diameter 0.980000;
neutral_strands 6.000000;
neutral_resistance 14.872000;
neutral_diameter 0.064000;
conductor_diameter 0.292000;
shield_gmr 0.000000;
name 949318line_configuration72underground_line_conductor74;
};

object underground_line_conductor {
conductor_gmr 0.008830;
conductor_resistance 1.540000;
shield_resistance 0.000000;
neutral_gmr 0.002080;
outer_diameter 0.980000;
neutral_strands 6.000000;
neutral_resistance 14.872000;
neutral_diameter 0.064000;
conductor_diameter 0.292000;
shield_gmr 0.000000;
name 949318line_configuration72underground_line_conductor75;
};

object underground_line_conductor {
conductor_gmr 0.008830;
conductor_resistance 1.540000;
shield_resistance 0.000000;
neutral_gmr 0.002080;
outer_diameter 0.980000;
neutral_strands 6.000000;
neutral_resistance 14.872000;
neutral_diameter 0.064000;
conductor_diameter 0.292000;
shield_gmr 0.000000;
name 949318line_configuration72underground_line_conductor76;
};

object underground_line_conductor {
conductor_gmr 0.008830;
conductor_resistance 1.540000;
shield_resistance 0.000000;
neutral_gmr 0.002080;
outer_diameter 0.980000;
neutral_strands 6.000000;
neutral_resistance 14.872000;
neutral_diameter 0.064000;
conductor_diameter 0.292000;
shield_gmr 0.000000;
name 949318line_configuration72underground_line_conductor77;
};

object underground_line {
phases B;
from node949318949317;
name 949319;
to nodeT14100949319;
length 40;
configuration 949319line_configuration79;
};

object line_configuration {
name 949319line_configuration79;
spacing 949319line_configuration79line_spacing80;
conductor_N 949319line_configuration79underground_line_conductor83;
conductor_A 949319line_configuration79underground_line_conductor81;
conductor_C 949319line_configuration79underground_line_conductor84;
conductor_B 949319line_configuration79underground_line_conductor82;
};

object line_spacing {
distance_AN 0.000000;
name 949319line_configuration79line_spacing80;
distance_CN 0.000000;
distance_BC 0.500000;
distance_AB 0.500000;
distance_BN 0.000000;
distance_AC 1.000000;
};

object underground_line_conductor {
conductor_gmr 0.008830;
conductor_resistance 1.540000;
shield_resistance 0.000000;
neutral_gmr 0.002080;
outer_diameter 0.980000;
neutral_strands 6.000000;
neutral_resistance 14.872000;
neutral_diameter 0.064000;
conductor_diameter 0.292000;
shield_gmr 0.000000;
name 949319line_configuration79underground_line_conductor81;
};

object underground_line_conductor {
conductor_gmr 0.008830;
conductor_resistance 1.540000;
shield_resistance 0.000000;
neutral_gmr 0.002080;
outer_diameter 0.980000;
neutral_strands 6.000000;
neutral_resistance 14.872000;
neutral_diameter 0.064000;
conductor_diameter 0.292000;
shield_gmr 0.000000;
name 949319line_configuration79underground_line_conductor82;
};

object underground_line_conductor {
conductor_gmr 0.008830;
conductor_resistance 1.540000;
shield_resistance 0.000000;
neutral_gmr 0.002080;
outer_diameter 0.980000;
neutral_strands 6.000000;
neutral_resistance 14.872000;
neutral_diameter 0.064000;
conductor_diameter 0.292000;
shield_gmr 0.000000;
name 949319line_configuration79underground_line_conductor83;
};

object underground_line_conductor {
conductor_gmr 0.008830;
conductor_resistance 1.540000;
shield_resistance 0.000000;
neutral_gmr 0.002080;
outer_diameter 0.980000;
neutral_strands 6.000000;
neutral_resistance 14.872000;
neutral_diameter 0.064000;
conductor_diameter 0.292000;
shield_gmr 0.000000;
name 949319line_configuration79underground_line_conductor84;
};

object transformer {
phases BS;
from nodeT14100949319;
name T14100;
to nodeS1806-33-073T14100;
configuration T14100transformer_configuration86;
};

object transformer_configuration {
powerC_rating 50 kVA;
name T14100transformer_configuration86;
shunt_impedance 10000+10000j;
secondary_voltage 240.0;
connect_type SINGLE_PHASE_CENTER_TAPPED;
impedance 0.00033+0.0022j;
primary_voltage 7200.0;
powerB_rating 50 kVA;
powerA_rating 50 kVA;
};

object triplex_node {
phases BS;
power_12 100;
name S1806-33-073;
parent nodeS1806-33-073T14100;
nominal_voltage 120;
};

object transformer {
phases BS;
from node949317978192;
name T14102;
to nodeS1806-32-065T14102;
configuration T14102transformer_configuration89;
};

object transformer_configuration {
powerC_rating 50 kVA;
name T14102transformer_configuration89;
shunt_impedance 10000+10000j;
secondary_voltage 240.0;
connect_type SINGLE_PHASE_CENTER_TAPPED;
impedance 0.00033+0.0022j;
primary_voltage 7200.0;
powerB_rating 50 kVA;
powerA_rating 50 kVA;
};

object triplex_node {
phases BS;
power_12 100;
name S1806-32-065;
parent nodeS1806-32-065T14102;
nominal_voltage 120;
};

object triplex_node {
phases BS;
power_12 100;
name S1806-33-042;
parent nodeS1806-32-065T14102;
nominal_voltage 120;
};

object underground_line {
phases C;
from node978174978172;
name 978200;
to nodeR2911x1978200;
length 314;
configuration 978200line_configuration93;
};

object line_configuration {
name 978200line_configuration93;
spacing 978200line_configuration93line_spacing94;
conductor_N 978200line_configuration93underground_line_conductor97;
conductor_C 978200line_configuration93underground_line_conductor98;
conductor_B 978200line_configuration93underground_line_conductor96;
conductor_A 978200line_configuration93underground_line_conductor95;
};

object line_spacing {
distance_AN 0.000000;
name 978200line_configuration93line_spacing94;
distance_CN 0.000000;
distance_BC 0.500000;
distance_AB 0.500000;
distance_BN 0.000000;
distance_AC 1.000000;
};

object underground_line_conductor {
conductor_gmr 0.008830;
conductor_resistance 1.540000;
shield_resistance 0.000000;
neutral_gmr 0.002080;
outer_diameter 0.980000;
neutral_strands 6.000000;
neutral_resistance 14.872000;
neutral_diameter 0.064000;
conductor_diameter 0.292000;
shield_gmr 0.000000;
name 978200line_configuration93underground_line_conductor95;
};

object underground_line_conductor {
conductor_gmr 0.008830;
conductor_resistance 1.540000;
shield_resistance 0.000000;
neutral_gmr 0.002080;
outer_diameter 0.980000;
neutral_strands 6.000000;
neutral_resistance 14.872000;
neutral_diameter 0.064000;
conductor_diameter 0.292000;
shield_gmr 0.000000;
name 978200line_configuration93underground_line_conductor96;
};

object underground_line_conductor {
conductor_gmr 0.008830;
conductor_resistance 1.540000;
shield_resistance 0.000000;
neutral_gmr 0.002080;
outer_diameter 0.980000;
neutral_strands 6.000000;
neutral_resistance 14.872000;
neutral_diameter 0.064000;
conductor_diameter 0.292000;
shield_gmr 0.000000;
name 978200line_configuration93underground_line_conductor97;
};

object underground_line_conductor {
conductor_gmr 0.008830;
conductor_resistance 1.540000;
shield_resistance 0.000000;
neutral_gmr 0.002080;
outer_diameter 0.980000;
neutral_strands 6.000000;
neutral_resistance 14.872000;
neutral_diameter 0.064000;
conductor_diameter 0.292000;
shield_gmr 0.000000;
name 978200line_configuration93underground_line_conductor98;
};

object fuse {
phases CN;
from nodeR2911x1978200;
name R2911x1;
current_limit 9999.0 A;
to node839461R2911x1;
};

object overhead_line {
phases CN;
from node839461R2911x1;
to node839464839461;
length 60;
configuration 839461line_configuration101;
name 839461;
};

object line_configuration {
name 839461line_configuration101;
spacing 839461line_configuration101line_spacing102;
conductor_N 839461line_configuration101overhead_line_conductor105;
conductor_A 839461line_configuration101overhead_line_conductor103;
conductor_C 839461line_configuration101overhead_line_conductor106;
conductor_B 839461line_configuration101overhead_line_conductor104;
};

object line_spacing {
distance_BC 7.0;
name 839461line_configuration101line_spacing102;
distance_CN 5.0;
distance_AN 4.272002;
distance_AB 2.5;
distance_AC 4.5;
distance_BN 5.656854;
};

object overhead_line_conductor {
resistance 0.185900;
name 839461line_configuration101overhead_line_conductor103;
geometric_mean_radius 0.031300;
};

object overhead_line_conductor {
resistance 0.185900;
name 839461line_configuration101overhead_line_conductor104;
geometric_mean_radius 0.031300;
};

object overhead_line_conductor {
resistance 2.57;
name 839461line_configuration101overhead_line_conductor105;
geometric_mean_radius 0.00437;
};

object overhead_line_conductor {
resistance 2.57;
name 839461line_configuration101overhead_line_conductor106;
geometric_mean_radius 0.00437;
};

object overhead_line {
phases CN;
from node839464839461;
name 839464;
to node839466839464;
length 111;
configuration 839464line_configuration108;
};

object line_configuration {
name 839464line_configuration108;
spacing 839464line_configuration108line_spacing109;
conductor_N 839464line_configuration108overhead_line_conductor112;
conductor_A 839464line_configuration108overhead_line_conductor110;
conductor_C 839464line_configuration108overhead_line_conductor113;
conductor_B 839464line_configuration108overhead_line_conductor111;
};

object line_spacing {
distance_BC 7.0;
name 839464line_configuration108line_spacing109;
distance_CN 5.0;
distance_AN 4.272002;
distance_AB 2.5;
distance_AC 4.5;
distance_BN 5.656854;
};

object overhead_line_conductor {
resistance 0.185900;
name 839464line_configuration108overhead_line_conductor110;
geometric_mean_radius 0.031300;
};

object overhead_line_conductor {
resistance 0.185900;
name 839464line_configuration108overhead_line_conductor111;
geometric_mean_radius 0.031300;
};

object overhead_line_conductor {
resistance 2.57;
name 839464line_configuration108overhead_line_conductor112;
geometric_mean_radius 0.00437;
};

object overhead_line_conductor {
resistance 2.57;
name 839464line_configuration108overhead_line_conductor113;
geometric_mean_radius 0.00437;
};

object overhead_line {
phases CN;
from node839466839464;
name 839466;
to node839469839466;
length 207;
configuration 839466line_configuration115;
};

object line_configuration {
name 839466line_configuration115;
spacing 839466line_configuration115line_spacing116;
conductor_N 839466line_configuration115overhead_line_conductor119;
conductor_A 839466line_configuration115overhead_line_conductor117;
conductor_C 839466line_configuration115overhead_line_conductor120;
conductor_B 839466line_configuration115overhead_line_conductor118;
};

object line_spacing {
distance_BC 7.0;
name 839466line_configuration115line_spacing116;
distance_CN 5.0;
distance_AN 4.272002;
distance_AB 2.5;
distance_AC 4.5;
distance_BN 5.656854;
};

object overhead_line_conductor {
resistance 0.185900;
name 839466line_configuration115overhead_line_conductor117;
geometric_mean_radius 0.031300;
};

object overhead_line_conductor {
resistance 0.185900;
name 839466line_configuration115overhead_line_conductor118;
geometric_mean_radius 0.031300;
};

object overhead_line_conductor {
resistance 2.57;
name 839466line_configuration115overhead_line_conductor119;
geometric_mean_radius 0.00437;
};

object overhead_line_conductor {
resistance 2.57;
name 839466line_configuration115overhead_line_conductor120;
geometric_mean_radius 0.00437;
};

object overhead_line {
phases CN;
from node839469839466;
name 839469;
to node839471839469;
length 226;
configuration 839469line_configuration122;
};

object line_configuration {
name 839469line_configuration122;
conductor_A 839469line_configuration122overhead_line_conductor124;
spacing 839469line_configuration122line_spacing123;
conductor_N 839469line_configuration122overhead_line_conductor126;
conductor_B 839469line_configuration122overhead_line_conductor125;
conductor_C 839469line_configuration122overhead_line_conductor127;
};

object line_spacing {
distance_BC 7.0;
name 839469line_configuration122line_spacing123;
distance_CN 5.0;
distance_AN 4.272002;
distance_AB 2.5;
distance_AC 4.5;
distance_BN 5.656854;
};

object overhead_line_conductor {
resistance 0.185900;
name 839469line_configuration122overhead_line_conductor124;
geometric_mean_radius 0.031300;
};

object overhead_line_conductor {
resistance 0.185900;
name 839469line_configuration122overhead_line_conductor125;
geometric_mean_radius 0.031300;
};

object overhead_line_conductor {
resistance 2.57;
name 839469line_configuration122overhead_line_conductor126;
geometric_mean_radius 0.00437;
};

object overhead_line_conductor {
resistance 2.57;
name 839469line_configuration122overhead_line_conductor127;
geometric_mean_radius 0.00437;
};

object overhead_line {
phases CN;
from node839471839469;
name 839471;
to node956777839471;
length 120;
configuration 839471line_configuration129;
};

object line_configuration {
name 839471line_configuration129;
spacing 839471line_configuration129line_spacing130;
conductor_N 839471line_configuration129overhead_line_conductor133;
conductor_B 839471line_configuration129overhead_line_conductor132;
conductor_A 839471line_configuration129overhead_line_conductor131;
conductor_C 839471line_configuration129overhead_line_conductor134;
};

object line_spacing {
distance_BC 7.0;
name 839471line_configuration129line_spacing130;
distance_CN 5.0;
distance_AN 4.272002;
distance_AB 2.5;
distance_AC 4.5;
distance_BN 5.656854;
};

object overhead_line_conductor {
resistance 0.185900;
name 839471line_configuration129overhead_line_conductor131;
geometric_mean_radius 0.031300;
};

object overhead_line_conductor {
resistance 0.185900;
name 839471line_configuration129overhead_line_conductor132;
geometric_mean_radius 0.031300;
};

object overhead_line_conductor {
resistance 2.57;
name 839471line_configuration129overhead_line_conductor133;
geometric_mean_radius 0.00437;
};

object overhead_line_conductor {
resistance 2.57;
name 839471line_configuration129overhead_line_conductor134;
geometric_mean_radius 0.00437;
};

object overhead_line {
phases CN;
from node956777839471;
name 956777;
to node839473956777;
length 130;
configuration 956777line_configuration136;
};

object line_configuration {
name 956777line_configuration136;
conductor_N 956777line_configuration136overhead_line_conductor140;
spacing 956777line_configuration136line_spacing137;
conductor_A 956777line_configuration136overhead_line_conductor138;
conductor_C 956777line_configuration136overhead_line_conductor141;
conductor_B 956777line_configuration136overhead_line_conductor139;
};

object line_spacing {
distance_BC 7.0;
name 956777line_configuration136line_spacing137;
distance_CN 5.0;
distance_AN 4.272002;
distance_AB 2.5;
distance_AC 4.5;
distance_BN 5.656854;
};

object overhead_line_conductor {
resistance 0.185900;
name 956777line_configuration136overhead_line_conductor138;
geometric_mean_radius 0.031300;
};

object overhead_line_conductor {
resistance 0.185900;
name 956777line_configuration136overhead_line_conductor139;
geometric_mean_radius 0.031300;
};

object overhead_line_conductor {
resistance 2.57;
name 956777line_configuration136overhead_line_conductor140;
geometric_mean_radius 0.00437;
};

object overhead_line_conductor {
resistance 2.57;
name 956777line_configuration136overhead_line_conductor141;
geometric_mean_radius 0.00437;
};

object overhead_line {
phases CN;
from node839473956777;
name 839473;
to node839475839473;
length 226;
configuration 839473line_configuration143;
};

object line_configuration {
name 839473line_configuration143;
spacing 839473line_configuration143line_spacing144;
conductor_N 839473line_configuration143overhead_line_conductor147;
conductor_A 839473line_configuration143overhead_line_conductor145;
conductor_C 839473line_configuration143overhead_line_conductor148;
conductor_B 839473line_configuration143overhead_line_conductor146;
};

object line_spacing {
distance_BC 7.0;
name 839473line_configuration143line_spacing144;
distance_CN 5.0;
distance_AN 4.272002;
distance_AB 2.5;
distance_AC 4.5;
distance_BN 5.656854;
};

object overhead_line_conductor {
resistance 0.185900;
name 839473line_configuration143overhead_line_conductor145;
geometric_mean_radius 0.031300;
};

object overhead_line_conductor {
resistance 0.185900;
name 839473line_configuration143overhead_line_conductor146;
geometric_mean_radius 0.031300;
};

object overhead_line_conductor {
resistance 2.57;
name 839473line_configuration143overhead_line_conductor147;
geometric_mean_radius 0.00437;
};

object overhead_line_conductor {
resistance 2.57;
name 839473line_configuration143overhead_line_conductor148;
geometric_mean_radius 0.00437;
};

object overhead_line {
phases CN;
from node839475839473;
name 839475;
to node839477839475;
length 262;
configuration 839475line_configuration150;
};

object line_configuration {
name 839475line_configuration150;
spacing 839475line_configuration150line_spacing151;
conductor_N 839475line_configuration150overhead_line_conductor154;
conductor_A 839475line_configuration150overhead_line_conductor152;
conductor_C 839475line_configuration150overhead_line_conductor155;
conductor_B 839475line_configuration150overhead_line_conductor153;
};

object line_spacing {
distance_BC 7.0;
name 839475line_configuration150line_spacing151;
distance_CN 5.0;
distance_AN 4.272002;
distance_AB 2.5;
distance_AC 4.5;
distance_BN 5.656854;
};

object overhead_line_conductor {
resistance 0.185900;
name 839475line_configuration150overhead_line_conductor152;
geometric_mean_radius 0.031300;
};

object overhead_line_conductor {
resistance 0.185900;
name 839475line_configuration150overhead_line_conductor153;
geometric_mean_radius 0.031300;
};

object overhead_line_conductor {
resistance 2.57;
name 839475line_configuration150overhead_line_conductor154;
geometric_mean_radius 0.00437;
};

object overhead_line_conductor {
resistance 2.57;
name 839475line_configuration150overhead_line_conductor155;
geometric_mean_radius 0.00437;
};

object overhead_line {
phases CN;
from node839477839475;
name 839477;
to node839479839477;
length 81;
configuration 839477line_configuration157;
};

object line_configuration {
name 839477line_configuration157;
spacing 839477line_configuration157line_spacing158;
conductor_N 839477line_configuration157overhead_line_conductor161;
conductor_C 839477line_configuration157overhead_line_conductor162;
conductor_B 839477line_configuration157overhead_line_conductor160;
conductor_A 839477line_configuration157overhead_line_conductor159;
};

object line_spacing {
distance_BC 7.0;
name 839477line_configuration157line_spacing158;
distance_CN 5.0;
distance_AN 4.272002;
distance_AB 2.5;
distance_AC 4.5;
distance_BN 5.656854;
};

object overhead_line_conductor {
resistance 0.185900;
name 839477line_configuration157overhead_line_conductor159;
geometric_mean_radius 0.031300;
};

object overhead_line_conductor {
resistance 0.185900;
name 839477line_configuration157overhead_line_conductor160;
geometric_mean_radius 0.031300;
};

object overhead_line_conductor {
resistance 2.57;
name 839477line_configuration157overhead_line_conductor161;
geometric_mean_radius 0.00437;
};

object overhead_line_conductor {
resistance 2.57;
name 839477line_configuration157overhead_line_conductor162;
geometric_mean_radius 0.00437;
};

object overhead_line {
phases CN;
from node839479839477;
name 839479;
to node839481839479;
length 243;
configuration 839479line_configuration164;
};

object line_configuration {
name 839479line_configuration164;
spacing 839479line_configuration164line_spacing165;
conductor_N 839479line_configuration164overhead_line_conductor168;
conductor_B 839479line_configuration164overhead_line_conductor167;
conductor_A 839479line_configuration164overhead_line_conductor166;
conductor_C 839479line_configuration164overhead_line_conductor169;
};

object line_spacing {
distance_BC 7.0;
name 839479line_configuration164line_spacing165;
distance_CN 5.0;
distance_AN 4.272002;
distance_AB 2.5;
distance_AC 4.5;
distance_BN 5.656854;
};

object overhead_line_conductor {
resistance 0.185900;
name 839479line_configuration164overhead_line_conductor166;
geometric_mean_radius 0.031300;
};

object overhead_line_conductor {
resistance 0.185900;
name 839479line_configuration164overhead_line_conductor167;
geometric_mean_radius 0.031300;
};

object overhead_line_conductor {
resistance 2.57;
name 839479line_configuration164overhead_line_conductor168;
geometric_mean_radius 0.00437;
};

object overhead_line_conductor {
resistance 2.57;
name 839479line_configuration164overhead_line_conductor169;
geometric_mean_radius 0.00437;
};

object overhead_line {
phases CN;
from node839481839479;
name 839481;
to node839483839481;
length 183;
configuration 839481line_configuration171;
};

object line_configuration {
name 839481line_configuration171;
spacing 839481line_configuration171line_spacing172;
conductor_N 839481line_configuration171overhead_line_conductor175;
conductor_A 839481line_configuration171overhead_line_conductor173;
conductor_C 839481line_configuration171overhead_line_conductor176;
conductor_B 839481line_configuration171overhead_line_conductor174;
};

object line_spacing {
distance_BC 7.0;
name 839481line_configuration171line_spacing172;
distance_CN 5.0;
distance_AN 4.272002;
distance_AB 2.5;
distance_AC 4.5;
distance_BN 5.656854;
};

object overhead_line_conductor {
resistance 0.185900;
name 839481line_configuration171overhead_line_conductor173;
geometric_mean_radius 0.031300;
};

object overhead_line_conductor {
resistance 0.185900;
name 839481line_configuration171overhead_line_conductor174;
geometric_mean_radius 0.031300;
};

object overhead_line_conductor {
resistance 2.57;
name 839481line_configuration171overhead_line_conductor175;
geometric_mean_radius 0.00437;
};

object overhead_line_conductor {
resistance 2.57;
name 839481line_configuration171overhead_line_conductor176;
geometric_mean_radius 0.00437;
};

object overhead_line {
phases CN;
from node839483839481;
name 839483;
length 98;
to node839484839483;
configuration 839483line_configuration178;
};

object line_configuration {
name 839483line_configuration178;
spacing 839483line_configuration178line_spacing179;
conductor_N 839483line_configuration178overhead_line_conductor182;
conductor_A 839483line_configuration178overhead_line_conductor180;
conductor_C 839483line_configuration178overhead_line_conductor183;
conductor_B 839483line_configuration178overhead_line_conductor181;
};

object line_spacing {
distance_BC 7.0;
name 839483line_configuration178line_spacing179;
distance_CN 5.0;
distance_AN 4.272002;
distance_AB 2.5;
distance_AC 4.5;
distance_BN 5.656854;
};

object overhead_line_conductor {
resistance 0.185900;
name 839483line_configuration178overhead_line_conductor180;
geometric_mean_radius 0.031300;
};

object overhead_line_conductor {
resistance 0.185900;
name 839483line_configuration178overhead_line_conductor181;
geometric_mean_radius 0.031300;
};

object overhead_line_conductor {
resistance 2.57;
name 839483line_configuration178overhead_line_conductor182;
geometric_mean_radius 0.00437;
};

object overhead_line_conductor {
resistance 2.57;
name 839483line_configuration178overhead_line_conductor183;
geometric_mean_radius 0.00437;
};

object overhead_line {
phases CN;
from node839484839483;
name 839484;
to node839486839484;
length 10;
configuration 839484line_configuration185;
};

object line_configuration {
name 839484line_configuration185;
conductor_A 839484line_configuration185overhead_line_conductor187;
spacing 839484line_configuration185line_spacing186;
conductor_N 839484line_configuration185overhead_line_conductor189;
conductor_C 839484line_configuration185overhead_line_conductor190;
conductor_B 839484line_configuration185overhead_line_conductor188;
};

object line_spacing {
distance_BC 7.0;
name 839484line_configuration185line_spacing186;
distance_CN 5.0;
distance_AN 4.272002;
distance_AB 2.5;
distance_AC 4.5;
distance_BN 5.656854;
};

object overhead_line_conductor {
resistance 0.185900;
name 839484line_configuration185overhead_line_conductor187;
geometric_mean_radius 0.031300;
};

object overhead_line_conductor {
resistance 0.185900;
name 839484line_configuration185overhead_line_conductor188;
geometric_mean_radius 0.031300;
};

object overhead_line_conductor {
resistance 2.57;
name 839484line_configuration185overhead_line_conductor189;
geometric_mean_radius 0.00437;
};

object overhead_line_conductor {
resistance 2.57;
name 839484line_configuration185overhead_line_conductor190;
geometric_mean_radius 0.00437;
};

object overhead_line {
phases CN;
from node839486839484;
name 839486;
to node839488839486;
length 223;
configuration 839486line_configuration192;
};

object line_configuration {
name 839486line_configuration192;
spacing 839486line_configuration192line_spacing193;
conductor_N 839486line_configuration192overhead_line_conductor196;
conductor_B 839486line_configuration192overhead_line_conductor195;
conductor_A 839486line_configuration192overhead_line_conductor194;
conductor_C 839486line_configuration192overhead_line_conductor197;
};

object line_spacing {
distance_BC 7.0;
name 839486line_configuration192line_spacing193;
distance_CN 5.0;
distance_AN 4.272002;
distance_AB 2.5;
distance_AC 4.5;
distance_BN 5.656854;
};

object overhead_line_conductor {
resistance 0.185900;
name 839486line_configuration192overhead_line_conductor194;
geometric_mean_radius 0.031300;
};

object overhead_line_conductor {
resistance 0.185900;
name 839486line_configuration192overhead_line_conductor195;
geometric_mean_radius 0.031300;
};

object overhead_line_conductor {
resistance 2.57;
name 839486line_configuration192overhead_line_conductor196;
geometric_mean_radius 0.00437;
};

object overhead_line_conductor {
resistance 2.57;
name 839486line_configuration192overhead_line_conductor197;
geometric_mean_radius 0.00437;
};

object overhead_line {
phases CN;
from node839488839486;
name 839488;
to node839490839488;
length 219;
configuration 839488line_configuration199;
};

object line_configuration {
name 839488line_configuration199;
conductor_N 839488line_configuration199overhead_line_conductor203;
spacing 839488line_configuration199line_spacing200;
conductor_A 839488line_configuration199overhead_line_conductor201;
conductor_C 839488line_configuration199overhead_line_conductor204;
conductor_B 839488line_configuration199overhead_line_conductor202;
};

object line_spacing {
distance_BC 7.0;
name 839488line_configuration199line_spacing200;
distance_CN 5.0;
distance_AN 4.272002;
distance_AB 2.5;
distance_AC 4.5;
distance_BN 5.656854;
};

object overhead_line_conductor {
resistance 0.185900;
name 839488line_configuration199overhead_line_conductor201;
geometric_mean_radius 0.031300;
};

object overhead_line_conductor {
resistance 0.185900;
name 839488line_configuration199overhead_line_conductor202;
geometric_mean_radius 0.031300;
};

object overhead_line_conductor {
resistance 2.57;
name 839488line_configuration199overhead_line_conductor203;
geometric_mean_radius 0.00437;
};

object overhead_line_conductor {
resistance 2.57;
name 839488line_configuration199overhead_line_conductor204;
geometric_mean_radius 0.00437;
};

object overhead_line {
phases CN;
from node839490839488;
name 839490;
to node839491839490;
length 178;
configuration 839490line_configuration206;
};

object line_configuration {
name 839490line_configuration206;
spacing 839490line_configuration206line_spacing207;
conductor_N 839490line_configuration206overhead_line_conductor210;
conductor_A 839490line_configuration206overhead_line_conductor208;
conductor_C 839490line_configuration206overhead_line_conductor211;
conductor_B 839490line_configuration206overhead_line_conductor209;
};

object line_spacing {
distance_BC 7.0;
name 839490line_configuration206line_spacing207;
distance_CN 5.0;
distance_AN 4.272002;
distance_AB 2.5;
distance_AC 4.5;
distance_BN 5.656854;
};

object overhead_line_conductor {
resistance 0.185900;
name 839490line_configuration206overhead_line_conductor208;
geometric_mean_radius 0.031300;
};

object overhead_line_conductor {
resistance 0.185900;
name 839490line_configuration206overhead_line_conductor209;
geometric_mean_radius 0.031300;
};

object overhead_line_conductor {
resistance 2.57;
name 839490line_configuration206overhead_line_conductor210;
geometric_mean_radius 0.00437;
};

object overhead_line_conductor {
resistance 2.57;
name 839490line_configuration206overhead_line_conductor211;
geometric_mean_radius 0.00437;
};

object overhead_line {
phases CN;
from node839491839490;
name 839491;
to node974130839491;
length 135;
configuration 839491line_configuration213;
};

object line_configuration {
name 839491line_configuration213;
spacing 839491line_configuration213line_spacing214;
conductor_N 839491line_configuration213overhead_line_conductor217;
conductor_A 839491line_configuration213overhead_line_conductor215;
conductor_C 839491line_configuration213overhead_line_conductor218;
conductor_B 839491line_configuration213overhead_line_conductor216;
};

object line_spacing {
distance_BC 7.0;
name 839491line_configuration213line_spacing214;
distance_CN 5.0;
distance_AN 4.272002;
distance_AB 2.5;
distance_AC 4.5;
distance_BN 5.656854;
};

object overhead_line_conductor {
resistance 0.185900;
name 839491line_configuration213overhead_line_conductor215;
geometric_mean_radius 0.031300;
};

object overhead_line_conductor {
resistance 0.185900;
name 839491line_configuration213overhead_line_conductor216;
geometric_mean_radius 0.031300;
};

object overhead_line_conductor {
resistance 2.57;
name 839491line_configuration213overhead_line_conductor217;
geometric_mean_radius 0.00437;
};

object overhead_line_conductor {
resistance 2.57;
name 839491line_configuration213overhead_line_conductor218;
geometric_mean_radius 0.00437;
};

object overhead_line {
phases CN;
from node974130839491;
name 974130;
to node839493974130;
length 120;
configuration 974130line_configuration220;
};

object line_configuration {
name 974130line_configuration220;
spacing 974130line_configuration220line_spacing221;
conductor_N 974130line_configuration220overhead_line_conductor224;
conductor_C 974130line_configuration220overhead_line_conductor225;
conductor_B 974130line_configuration220overhead_line_conductor223;
conductor_A 974130line_configuration220overhead_line_conductor222;
};

object line_spacing {
distance_BC 7.0;
name 974130line_configuration220line_spacing221;
distance_CN 5.0;
distance_AN 4.272002;
distance_AB 2.5;
distance_AC 4.5;
distance_BN 5.656854;
};

object overhead_line_conductor {
resistance 0.185900;
name 974130line_configuration220overhead_line_conductor222;
geometric_mean_radius 0.031300;
};

object overhead_line_conductor {
resistance 0.185900;
name 974130line_configuration220overhead_line_conductor223;
geometric_mean_radius 0.031300;
};

object overhead_line_conductor {
resistance 2.57;
name 974130line_configuration220overhead_line_conductor224;
geometric_mean_radius 0.00437;
};

object overhead_line_conductor {
resistance 2.57;
name 974130line_configuration220overhead_line_conductor225;
geometric_mean_radius 0.00437;
};

object overhead_line {
phases CN;
from node839493974130;
name 839493;
to node839496839493;
length 261;
configuration 839493line_configuration227;
};

object line_configuration {
spacing 839493line_configuration227line_spacing228;
conductor_N 839493line_configuration227overhead_line_conductor231;
conductor_B 839493line_configuration227overhead_line_conductor230;
conductor_A 839493line_configuration227overhead_line_conductor229;
conductor_C 839493line_configuration227overhead_line_conductor232;
name 839493line_configuration227;
};

object line_spacing {
distance_BC 7.0;
name 839493line_configuration227line_spacing228;
distance_CN 5.0;
distance_AN 4.272002;
distance_AB 2.5;
distance_AC 4.5;
distance_BN 5.656854;
};

object overhead_line_conductor {
resistance 0.185900;
name 839493line_configuration227overhead_line_conductor229;
geometric_mean_radius 0.031300;
};

object overhead_line_conductor {
resistance 0.185900;
name 839493line_configuration227overhead_line_conductor230;
geometric_mean_radius 0.031300;
};

object overhead_line_conductor {
resistance 2.57;
name 839493line_configuration227overhead_line_conductor231;
geometric_mean_radius 0.00437;
};

object overhead_line_conductor {
resistance 2.57;
name 839493line_configuration227overhead_line_conductor232;
geometric_mean_radius 0.00437;
};

object overhead_line {
phases CN;
from node839496839493;
name 839496;
to node839497839496;
length 56;
configuration 839496line_configuration234;
};

object line_configuration {
name 839496line_configuration234;
spacing 839496line_configuration234line_spacing235;
conductor_N 839496line_configuration234overhead_line_conductor238;
conductor_A 839496line_configuration234overhead_line_conductor236;
conductor_C 839496line_configuration234overhead_line_conductor239;
conductor_B 839496line_configuration234overhead_line_conductor237;
};

object line_spacing {
distance_BC 7.0;
name 839496line_configuration234line_spacing235;
distance_CN 5.0;
distance_AN 4.272002;
distance_AB 2.5;
distance_AC 4.5;
distance_BN 5.656854;
};

object overhead_line_conductor {
resistance 0.185900;
name 839496line_configuration234overhead_line_conductor236;
geometric_mean_radius 0.031300;
};

object overhead_line_conductor {
resistance 0.185900;
name 839496line_configuration234overhead_line_conductor237;
geometric_mean_radius 0.031300;
};

object overhead_line_conductor {
resistance 2.57;
name 839496line_configuration234overhead_line_conductor238;
geometric_mean_radius 0.00437;
};

object overhead_line_conductor {
resistance 2.57;
name 839496line_configuration234overhead_line_conductor239;
geometric_mean_radius 0.00437;
};

object overhead_line {
phases CN;
from node839497839496;
name 839497;
to node839499839497;
length 191;
configuration 839497line_configuration241;
};

object line_configuration {
name 839497line_configuration241;
spacing 839497line_configuration241line_spacing242;
conductor_N 839497line_configuration241overhead_line_conductor245;
conductor_A 839497line_configuration241overhead_line_conductor243;
conductor_C 839497line_configuration241overhead_line_conductor246;
conductor_B 839497line_configuration241overhead_line_conductor244;
};

object line_spacing {
distance_BC 7.0;
name 839497line_configuration241line_spacing242;
distance_CN 5.0;
distance_AN 4.272002;
distance_AB 2.5;
distance_AC 4.5;
distance_BN 5.656854;
};

object overhead_line_conductor {
resistance 0.185900;
name 839497line_configuration241overhead_line_conductor243;
geometric_mean_radius 0.031300;
};

object overhead_line_conductor {
resistance 0.185900;
name 839497line_configuration241overhead_line_conductor244;
geometric_mean_radius 0.031300;
};

object overhead_line_conductor {
resistance 2.57;
name 839497line_configuration241overhead_line_conductor245;
geometric_mean_radius 0.00437;
};

object overhead_line_conductor {
resistance 2.57;
name 839497line_configuration241overhead_line_conductor246;
geometric_mean_radius 0.00437;
};

object overhead_line {
phases CN;
from node839499839497;
name 839499;
to node839502839499;
length 223;
configuration 839499line_configuration248;
};

object line_configuration {
name 839499line_configuration248;
conductor_A 839499line_configuration248overhead_line_conductor250;
spacing 839499line_configuration248line_spacing249;
conductor_N 839499line_configuration248overhead_line_conductor252;
conductor_C 839499line_configuration248overhead_line_conductor253;
conductor_B 839499line_configuration248overhead_line_conductor251;
};

object line_spacing {
distance_BC 7.0;
name 839499line_configuration248line_spacing249;
distance_CN 5.0;
distance_AN 4.272002;
distance_AB 2.5;
distance_AC 4.5;
distance_BN 5.656854;
};

object overhead_line_conductor {
resistance 0.185900;
name 839499line_configuration248overhead_line_conductor250;
geometric_mean_radius 0.031300;
};

object overhead_line_conductor {
resistance 0.185900;
name 839499line_configuration248overhead_line_conductor251;
geometric_mean_radius 0.031300;
};

object overhead_line_conductor {
resistance 2.57;
name 839499line_configuration248overhead_line_conductor252;
geometric_mean_radius 0.00437;
};

object overhead_line_conductor {
resistance 2.57;
name 839499line_configuration248overhead_line_conductor253;
geometric_mean_radius 0.00437;
};

object overhead_line {
phases CN;
from node839502839499;
name 839502;
to node839503839502;
length 91;
configuration 839502line_configuration255;
};

object line_configuration {
name 839502line_configuration255;
spacing 839502line_configuration255line_spacing256;
conductor_N 839502line_configuration255overhead_line_conductor259;
conductor_A 839502line_configuration255overhead_line_conductor257;
conductor_C 839502line_configuration255overhead_line_conductor260;
conductor_B 839502line_configuration255overhead_line_conductor258;
};

object line_spacing {
distance_BC 7.0;
name 839502line_configuration255line_spacing256;
distance_CN 5.0;
distance_AN 4.272002;
distance_AB 2.5;
distance_AC 4.5;
distance_BN 5.656854;
};

object overhead_line_conductor {
resistance 0.185900;
name 839502line_configuration255overhead_line_conductor257;
geometric_mean_radius 0.031300;
};

object overhead_line_conductor {
resistance 0.185900;
name 839502line_configuration255overhead_line_conductor258;
geometric_mean_radius 0.031300;
};

object overhead_line_conductor {
resistance 2.57;
name 839502line_configuration255overhead_line_conductor259;
geometric_mean_radius 0.00437;
};

object overhead_line_conductor {
resistance 2.57;
name 839502line_configuration255overhead_line_conductor260;
geometric_mean_radius 0.00437;
};

object overhead_line {
phases CN;
from node839503839502;
name 839503;
to node839505839503;
length 134;
configuration 839503line_configuration262;
};

object line_configuration {
name 839503line_configuration262;
spacing 839503line_configuration262line_spacing263;
conductor_N 839503line_configuration262overhead_line_conductor266;
conductor_A 839503line_configuration262overhead_line_conductor264;
conductor_C 839503line_configuration262overhead_line_conductor267;
conductor_B 839503line_configuration262overhead_line_conductor265;
};

object line_spacing {
distance_BC 7.0;
name 839503line_configuration262line_spacing263;
distance_CN 5.0;
distance_AN 4.272002;
distance_AB 2.5;
distance_AC 4.5;
distance_BN 5.656854;
};

object overhead_line_conductor {
resistance 0.185900;
name 839503line_configuration262overhead_line_conductor264;
geometric_mean_radius 0.031300;
};

object overhead_line_conductor {
resistance 0.185900;
name 839503line_configuration262overhead_line_conductor265;
geometric_mean_radius 0.031300;
};

object overhead_line_conductor {
resistance 2.57;
name 839503line_configuration262overhead_line_conductor266;
geometric_mean_radius 0.00437;
};

object overhead_line_conductor {
resistance 2.57;
name 839503line_configuration262overhead_line_conductor267;
geometric_mean_radius 0.00437;
};

object underground_line {
phases CN;
from node839505839503;
name 839505;
to nodeFFRN1-F008x1839505;
length 18;
configuration 839505line_configuration269;
};

object line_configuration {
name 839505line_configuration269;
spacing 839505line_configuration269line_spacing270;
conductor_N 839505line_configuration269underground_line_conductor273;
conductor_A 839505line_configuration269underground_line_conductor271;
conductor_C 839505line_configuration269underground_line_conductor274;
conductor_B 839505line_configuration269underground_line_conductor272;
};

object line_spacing {
distance_AN 0.000000;
name 839505line_configuration269line_spacing270;
distance_CN 0.000000;
distance_BC 0.500000;
distance_AB 0.500000;
distance_BN 0.000000;
distance_AC 1.000000;
};

object underground_line_conductor {
conductor_gmr 0.008830;
conductor_resistance 1.540000;
shield_resistance 0.000000;
neutral_gmr 0.002080;
outer_diameter 0.980000;
neutral_strands 6.000000;
neutral_resistance 14.872000;
neutral_diameter 0.064000;
conductor_diameter 0.292000;
shield_gmr 0.000000;
name 839505line_configuration269underground_line_conductor271;
};

object underground_line_conductor {
conductor_gmr 0.008830;
conductor_resistance 1.540000;
shield_resistance 0.000000;
neutral_gmr 0.002080;
outer_diameter 0.980000;
neutral_strands 6.000000;
neutral_resistance 14.872000;
neutral_diameter 0.064000;
conductor_diameter 0.292000;
shield_gmr 0.000000;
name 839505line_configuration269underground_line_conductor272;
};

object underground_line_conductor {
conductor_gmr 0.008830;
conductor_resistance 1.540000;
shield_resistance 0.000000;
neutral_gmr 0.002080;
outer_diameter 0.980000;
neutral_strands 6.000000;
neutral_resistance 14.872000;
neutral_diameter 0.064000;
...